[TITLE]
;;Project Title/Notes
Test

[OPTIONS]
;;Option             Value
FLOW_UNITS           CMS
INFILTRATION         CURVE_NUMBER
FLOW_ROUTING         KINWAVE
LINK_OFFSETS         DEPTH
MIN_SLOPE            0
ALLOW_PONDING        NO
SKIP_STEADY_STATE    NO

START_DATE           08/02/2019
START_TIME           00:00:00
REPORT_START_DATE    08/02/2019
REPORT_START_TIME    00:00:00
END_DATE             08/02/2019
END_TIME             23:00:00
SWEEP_START          01/01
SWEEP_END            12/31
DRY_DAYS             0
REPORT_STEP          00:15:00
WET_STEP             00:05:00
DRY_STEP             01:00:00
ROUTING_STEP         0:00:30 
RULE_STEP            00:00:00

INERTIAL_DAMPING     PARTIAL
NORMAL_FLOW_LIMITED  BOTH
FORCE_MAIN_EQUATION  H-W
VARIABLE_STEP        0.75
LENGTHENING_STEP     0
MIN_SURFAREA         1.167
MAX_TRIALS           8
HEAD_TOLERANCE       0.0015
SYS_FLOW_TOL         5
LAT_FLOW_TOL         5
MINIMUM_STEP         0.5
THREADS              1

[EVAPORATION]
;;Data Source    Parameters
;;-------------- ----------------
CONSTANT         0.0
DRY_ONLY         NO

[RAINGAGES]
;;Name           Format    Interval SCF      Source    
;;-------------- --------- ------ ------ ----------
Gage1            INTENSITY 0:05     1.0      TIMESERIES Moabit_02_Aug_2019_file

[SUBCATCHMENTS]
;;Name           Rain Gage        Outlet           Area     %Imperv  Width    %Slope   CurbLen  SnowPack        
;;-------------- ---------------- ---------------- -------- -------- -------- -------- -------- ----------------
1                Gage1            Out1             3.705556 36.151120 215.829858 1.021131 0                        
2                Gage1            Out1             4.856017 29.470656 234.421938 1.013760 0                        
3                Gage1            Out1             1.065064 73.075436 106.482893 1.307928 0                        
4                Gage1            Out1             4.155832 41.926623 227.156720 0.304320 0                        
5                Gage1            Out1             4.986692 43.503787 225.010843 0.400024 0                        
6                Gage1            Out1             2.841779 50.091862 167.894466 0.412164 0                        
7                Gage1            Out1             1.710590 36.244810 143.014836 0.395134 0                        
8                Gage1            Out1             4.084648 39.376712 207.981734 0.694992 0                        
9                Gage1            Out1             8.885102 12.780946 316.571067 0.733758 0                        
10               Gage1            Out1             2.458254 58.757147 174.365023 0.491781 0                        
11               Gage1            Out1             2.515617 52.885643 186.910562 0.501623 0                        
12               Gage1            Out1             1.586132 56.647226 135.616894 0.321768 0                        
13               Gage1            Out1             2.549901 60.347446 175.898743 0.383950 0                        
14               Gage1            Out1             2.337498 49.835340 167.331451 1.614063 0                        
15               Gage1            Out1             2.272746 51.118784 162.146081 0.334517 0                        
16               Gage1            Out1             2.937484 51.203688 176.790561 0.323485 0                        
17               Gage1            Out1             0.949681 62.726314 99.803857 0.196319 0                        
18               Gage1            Out1             0.974807 68.177597 100.221807 0.228294 0                        
19               Gage1            Out1             3.120820 46.638377 184.421045 0.195973 0                        
20               Gage1            Out1             7.118260 33.637432 299.933487 0.292296 0                        
21               Gage1            Out1             2.210519 19.438875 165.703043 0.198189 0                        
22               Gage1            Out1             2.372942 29.275895 174.151575 0.257941 0                        
23               Gage1            Out1             0.956216 77.168767 98.926616 0.654707 0                        
24               Gage1            Out1             0.695080 73.919497 86.145281 0.303251 0                        
25               Gage1            Out1             2.632014 53.491348 167.680475 0.278555 0                        
26               Gage1            Out1             1.460137 62.158556 126.866236 0.347595 0                        
27               Gage1            Out1             1.942923 48.370413 143.369362 0.369621 0                        
28               Gage1            Out1             1.697852 25.337904 150.154226 0.267785 0                        
29               Gage1            Out1             4.771657 57.504139 221.063432 0.430176 0                        
30               Gage1            Out1             6.763618 31.954792 270.163647 0.382994 0                        
31               Gage1            Out1             1.242118 38.555118 111.459969 0.599479 0                        
32               Gage1            Out1             3.878875 54.098164 198.424019 0.736394 0                        
33               Gage1            Out1             2.953354 46.611418 176.039190 0.291713 0                        
34               Gage1            Out1             4.815106 50.108965 228.675497 0.607120 0                        
35               Gage1            Out1             3.758451 43.954275 194.878867 0.507231 0                        
36               Gage1            Out1             3.440650 43.456904 189.250587 0.456389 0                        
37               Gage1            Out1             3.143686 58.116488 177.761346 0.718152 0                        
38               Gage1            Out1             3.225539 42.405310 179.623248 0.676657 0                        
39               Gage1            Out1             3.295394 51.672120 184.447345 0.368311 0                        
40               Gage1            Out1             3.024770 52.668471 177.317739 0.397804 0                        
41               Gage1            Out1             2.892181 54.308488 173.226313 0.709098 0                        
42               Gage1            Out1             2.416154 53.676222 162.543457 0.468638 0                        
43               Gage1            Out1             1.878105 48.969571 138.879511 0.426692 0                        
44               Gage1            Out1             2.452289 45.015091 161.769554 0.403965 0                        
45               Gage1            Out1             2.708847 54.310937 170.322805 0.446584 0                        
46               Gage1            Out1             3.148626 51.784492 211.173135 0.463883 0                        
47               Gage1            Out1             1.578461 66.083338 156.662097 0.342101 0                        
48               Gage1            Out1             1.599565 65.361511 153.858661 0.210925 0                        
49               Gage1            Out1             3.088375 57.875097 181.779404 0.260523 0                        
50               Gage1            Out1             2.556980 54.321895 166.092403 0.241657 0                        
51               Gage1            Out1             3.366728 42.082404 188.205697 0.458936 0                        
52               Gage1            Out1             2.152407 46.808067 149.950131 0.243664 0                        
53               Gage1            Out1             2.602702 44.580599 162.667401 0.380668 0                        
54               Gage1            Out1             1.029484 66.703331 113.079770 0.267784 0                        
55               Gage1            Out1             2.133383 51.819102 145.931738 0.287297 0                        
56               Gage1            Out1             1.640293 59.532064 144.894081 0.652149 0                        
57               Gage1            Out1             1.651263 50.791414 138.871496 0.269519 0                        
58               Gage1            Out1             3.935796 52.510339 314.783087 0.444978 0                        
59               Gage1            Out1             1.764651 54.248700 149.358034 1.265244 0                        
60               Gage1            Out1             0.576209 45.348134 90.074228 0.292109 0                        
61               Gage1            Out1             1.004742 24.065877 123.207284 0.551593 0                        
62               Gage1            Out1             8.721751 52.855214 528.203986 0.395914 0                        
63               Gage1            Out1             5.106029 41.895574 218.837148 0.569095 0                        
64               Gage1            Out1             1.830930 48.647418 158.505363 0.662156 0                        
65               Gage1            Out1             0.749241 53.480797 100.327307 0.347158 0                        
66               Gage1            Out1             0.541686 75.468051 73.605143 0.403835 0                        
67               Gage1            Out1             0.216762 0.000000 57.093986 0.267241 0                        
68               Gage1            Out1             0.086134 25.889914 37.119563 3.180444 0                        
69               Gage1            Out1             0.648982 4.807528 89.477350 1.091287 0                        
70               Gage1            Out1             0.225357 55.600638 48.261074 0.638049 0                        
71               Gage1            Out1             2.575788 10.594815 158.306847 0.988746 0                        
72               Gage1            Out1             2.869288 20.262866 181.857923 0.766847 0                        
73               Gage1            Out1             4.455150 32.771064 211.467496 1.183228 0                        
74               Gage1            Out1             1.539015 61.565365 131.311473 1.059194 0                        
75               Gage1            Out1             0.278937 23.948035 65.483040 0.186450 0                        
76               Gage1            Out1             0.601388 25.008801 87.165389 0.821928 0                        
77               Gage1            Out1             4.078267 35.240461 270.033552 1.278650 0                        
78               Gage1            Out1             7.427628 29.216594 375.203384 1.157042 0                        
79               Gage1            Out1             6.135495 33.875019 263.421410 0.350030 0                        
80               Gage1            Out1             1.186383 49.967008 121.548544 0.336995 0                        
81               Gage1            Out1             14.559924 4.485600 592.927375 2.128140 0                        
82               Gage1            Out1             1.570347 6.654579 128.443365 0.500497 0                        
83               Gage1            Out1             1.533944 0.964833 172.921247 2.146085 0                        
84               Gage1            Out1             0.332719 0.450831 84.645716 0.673277 0                        
85               Gage1            Out1             0.413816 0.000000 97.494997 0.715423 0                        
86               Gage1            Out1             0.666258 0.000000 150.919401 0.899343 0                        
87               Gage1            Out1             0.435401 0.000000 102.489232 0.331662 0                        
88               Gage1            Out1             0.487759 0.082008 214.537869 2.659145 0                        
89               Gage1            Out1             0.660114 0.000000 263.486178 2.151159 0                        
90               Gage1            Out1             0.169696 0.000000 75.335905 2.324654 0                        
91               Gage1            Out1             0.810005 100.000000 159.311770 0.170136 0                        
92               Gage1            Out1             1.430039 100.000000 325.598530 0.733954 0                        
93               Gage1            Out1             0.930010 100.000000 216.636850 0.613332 0                        
94               Gage1            Out1             0.625929 100.000000 178.257784 0.288943 0                        
95               Gage1            Out1             0.782397 100.000000 219.257604 0.444972 0                        
96               Gage1            Out1             0.540120 100.000000 142.109431 2.118526 0                        
97               Gage1            Out1             0.746106 100.000000 208.051288 0.887163 0                        
98               Gage1            Out1             1.430047 100.000000 325.598534 0.500000 0                        
99               Gage1            Out1             0.197045 100.000000 51.013503 0.395110 0                        
100              Gage1            Out1             0.025762 100.000000 18.416425 3.000000 0                        
101              Gage1            Out1             0.728412 100.000000 201.045462 0.287445 0                        
102              Gage1            Out1             0.134331 100.000000 46.816988 0.469100 0                        
104              Gage1            Out1             0.082462 100.000000 32.360492 0.108249 0                        
105              Gage1            Out1             0.001632 100.000000 9.907269 3.500000 0                        
106              Gage1            Out1             0.015020 100.000000 13.825310 0.650000 0                        
107              Gage1            Out1             0.308273 100.000000 72.366757 0.181515 0                        
108              Gage1            Out1             0.596387 100.000000 150.811715 1.434077 0                        
109              Gage1            Out1             0.122032 100.000000 43.630892 0.950597 0                        
110              Gage1            Out1             0.930007 100.000000 216.636850 0.550000 0                        
111              Gage1            Out1             0.722530 100.000000 203.663313 1.488051 0                        
113              Gage1            Out1             0.053368 100.000000 24.838247 1.908865 0                        
115              Gage1            Out1             0.555320 100.000000 161.612919 0.613253 0                        
116              Gage1            Out1             0.246469 100.000000 74.423064 0.230934 0                        
117              Gage1            Out1             0.355388 100.000000 112.068999 0.239126 0                        
118              Gage1            Out1             0.540120 100.000000 142.109431 1.500000 0                        
119              Gage1            Out1             0.746109 100.000000 208.051293 1.000000 0                        
120              Gage1            Out1             0.118518 100.000000 41.668505 0.289682 0                        
121              Gage1            Out1             0.084837 100.000000 41.823766 3.495937 0                        
122              Gage1            Out1             0.058732 100.000000 34.386977 0.599619 0                        
123              Gage1            Out1             0.044322 100.000000 32.724501 0.805441 0                        
124              Gage1            Out1             0.574465 100.000000 117.571432 0.242906 0                        
125              Gage1            Out1             0.220084 100.000000 86.600633 0.593104 0                        
126              Gage1            Out1             0.426310 100.000000 129.095268 0.455259 0                        
127              Gage1            Out1             0.348688 100.000000 104.232164 0.256313 0                        
128              Gage1            Out1             0.322028 100.000000 94.449889 0.203129 0                        
129              Gage1            Out1             0.041474 100.000000 31.533959 0.468113 0                        
131              Gage1            Out1             0.185550 100.000000 39.251758 0.174918 0                        
132              Gage1            Out1             0.695445 100.000000 196.851392 3.630569 0                        
134              Gage1            Out1             0.036337 100.000000 19.617338 0.341792 0                        
135              Gage1            Out1             3.973814 100.000000 493.805836 0.382074 0                        
136              Gage1            Out1             0.466972 100.000000 101.700445 0.248888 0                        
137              Gage1            Out1             0.152384 100.000000 44.495877 0.149999 0                        
138              Gage1            Out1             0.280486 100.000000 84.131796 0.754899 0                        
140              Gage1            Out1             0.770665 100.000000 214.638168 0.149189 0                        
141              Gage1            Out1             0.177726 100.000000 56.548001 0.149809 0                        
142              Gage1            Out1             0.510502 100.000000 124.750129 0.245658 0                        
143              Gage1            Out1             0.259070 100.000000 64.308839 0.193170 0                        
144              Gage1            Out1             0.280531 100.000000 84.208813 0.461950 0                        
145              Gage1            Out1             0.459845 100.000000 131.693105 0.166840 0                        
146              Gage1            Out1             0.280485 100.000000 84.131796 0.800000 0                        
147              Gage1            Out1             0.061673 100.000000 25.223196 0.247728 0                        
148              Gage1            Out1             0.135618 100.000000 44.639571 0.334255 0                        
149              Gage1            Out1             0.394491 100.000000 107.124443 0.174504 0                        
150              Gage1            Out1             0.526468 100.000000 126.221703 0.224601 0                        
151              Gage1            Out1             0.392588 100.000000 98.974006 0.305569 0                        
152              Gage1            Out1             1.608540 100.000000 167.368457 0.455631 0                        
153              Gage1            Out1             0.191409 100.000000 60.787741 0.213722 0                        
154              Gage1            Out1             0.183574 100.000000 52.007813 0.170067 0                        
155              Gage1            Out1             0.163061 100.000000 55.748656 0.107386 0                        
156              Gage1            Out1             0.346575 100.000000 102.046321 0.216434 0                        
157              Gage1            Out1             0.513026 100.000000 122.209932 0.229678 0                        
158              Gage1            Out1             0.482485 100.000000 136.900387 0.212727 0                        
159              Gage1            Out1             0.482570 100.000000 141.175985 0.369883 0                        
160              Gage1            Out1             0.399914 100.000000 115.589524 0.139970 0                        
161              Gage1            Out1             0.707583 100.000000 196.797458 0.354163 0                        
162              Gage1            Out1             0.450906 100.000000 131.890333 0.709088 0                        
163              Gage1            Out1             0.409294 100.000000 119.936113 0.647589 0                        
164              Gage1            Out1             0.449710 100.000000 118.248702 0.106238 0                        
165              Gage1            Out1             0.165613 100.000000 56.018517 0.141467 0                        
166              Gage1            Out1             0.301056 100.000000 102.049127 0.462056 0                        
167              Gage1            Out1             0.740804 100.000000 183.694380 0.194809 0                        
168              Gage1            Out1             0.183284 100.000000 52.046949 0.094002 0                        
169              Gage1            Out1             0.260423 100.000000 79.122375 0.168741 0                        
170              Gage1            Out1             0.510184 100.000000 124.750248 0.200000 0                        
171              Gage1            Out1             0.245430 100.000000 74.855033 0.156804 0                        
172              Gage1            Out1             0.272770 100.000000 59.543968 0.313202 0                        
173              Gage1            Out1             0.292935 100.000000 77.295676 1.106461 0                        
174              Gage1            Out1             0.571627 100.000000 92.765140 0.234299 0                        
175              Gage1            Out1             0.459898 100.000000 131.694483 0.200000 0                        
176              Gage1            Out1             0.339462 100.000000 99.495738 0.279061 0                        
177              Gage1            Out1             0.915957 100.000000 256.027431 0.451037 0                        
178              Gage1            Out1             0.040920 100.000000 32.135707 0.198506 0                        
179              Gage1            Out1             0.770732 100.000000 214.638160 0.200000 0                        
180              Gage1            Out1             0.536200 100.000000 163.220794 0.380590 0                        
181              Gage1            Out1             0.451982 100.000000 121.164067 0.238133 0                        
182              Gage1            Out1             0.661390 100.000000 161.081356 0.301520 0                        
183              Gage1            Out1             0.925647 100.000000 214.639405 0.172549 0                        
184              Gage1            Out1             0.417350 100.000000 119.169850 0.208358 0                        
185              Gage1            Out1             0.021886 100.000000 14.875550 3.140000 0                        
186              Gage1            Out1             0.349186 100.000000 90.410060 0.300632 0                        
187              Gage1            Out1             0.840756 100.000000 234.564354 0.154412 0                        
188              Gage1            Out1             0.466185 100.000000 132.403414 0.298648 0                        
189              Gage1            Out1             3.944243 100.000000 401.566568 0.257911 0                        
190              Gage1            Out1             0.622494 100.000000 131.405437 0.217809 0                        
191              Gage1            Out1             0.533968 100.000000 114.368106 0.262678 0                        
192              Gage1            Out1             0.651464 100.000000 138.465314 0.342630 0                        
193              Gage1            Out1             0.464390 100.000000 108.943425 0.249360 0                        
194              Gage1            Out1             2.497095 100.000000 500.493446 0.731449 0                        
195              Gage1            Out1             2.729702 100.000000 444.470634 0.256446 0                        
196              Gage1            Out1             0.395888 100.000000 113.139929 0.456765 0                        
197              Gage1            Out1             0.540071 100.000000 140.711687 0.346966 0                        
198              Gage1            Out1             0.519211 100.000000 111.625911 0.436463 0                        
199              Gage1            Out1             0.488590 100.000000 106.823838 0.467643 0                        
200              Gage1            Out1             4.881795 100.000000 687.840481 0.758697 0                        
201              Gage1            Out1             0.574110 100.000000 101.526910 0.314418 0                        
202              Gage1            Out1             0.421002 100.000000 171.012774 1.007984 0                        
203              Gage1            Out1             0.145099 100.000000 48.244326 0.394923 0                        
204              Gage1            Out1             0.002986 100.000000 8.608026 0.450000 0                        
205              Gage1            Out1             0.011143 100.000000 53.571777 0.160000 0                        
206              Gage1            Out1             0.743388 100.000000 126.744253 0.257276 0                        
207              Gage1            Out1             0.706447 100.000000 207.035906 0.305995 0                        
208              Gage1            Out1             0.799002 100.000000 226.444692 0.271915 0                        
209              Gage1            Out1             0.495334 100.000000 121.432894 2.972700 0                        
210              Gage1            Out1             1.362428 100.000000 238.075102 0.369267 0                        
211              Gage1            Out1             0.351068 100.000000 102.740524 0.777831 0                        
212              Gage1            Out1             0.006072 100.000000 16.183086 0.263449 0                        
213              Gage1            Out1             0.005277 100.000000 14.584011 0.150000 0                        
214              Gage1            Out1             0.002625 100.000000 6.773311 0.430000 0                        
215              Gage1            Out1             3.973814 100.000000 493.805835 0.300000 0                        
216              Gage1            Out1             1.086307 100.000000 326.903574 0.241974 0                        
217              Gage1            Out1             0.004601 100.000000 6.754530 2.360000 0                        
218              Gage1            Out1             1.099601 100.000000 224.831168 0.386270 0                        
219              Gage1            Out1             0.197289 100.000000 65.563492 0.985031 0                        
220              Gage1            Out1             1.928922 100.000000 377.492424 0.245134 0                        
221              Gage1            Out1             1.732891 100.000000 576.465494 2.162966 0                        
222              Gage1            Out1             0.354489 100.000000 105.566416 0.746901 0                        
223              Gage1            Out1             0.847466 100.000000 231.059542 0.367360 0                        
224              Gage1            Out1             0.142019 100.000000 47.597974 0.358126 0                        
225              Gage1            Out1             1.763853 100.000000 225.186182 0.330672 0                        
226              Gage1            Out1             0.082557 100.000000 85.710192 0.607692 0                        
227              Gage1            Out1             0.619471 100.000000 156.610974 1.807553 0                        
228              Gage1            Out1             0.515394 100.000000 109.440810 0.389222 0                        
229              Gage1            Out1             0.285753 100.000000 71.138905 2.085583 0                        
230              Gage1            Out1             0.682175 100.000000 157.256540 0.313591 0                        
231              Gage1            Out1             0.617310 100.000000 142.314982 0.355105 0                        
232              Gage1            Out1             0.698539 100.000000 172.405745 0.208793 0                        
233              Gage1            Out1             0.440961 100.000000 119.886213 2.386397 0                        
234              Gage1            Out1             0.032431 100.000000 20.341651 4.500000 0                        
235              Gage1            Out1             1.399900 100.000000 340.680247 2.262612 0                        
236              Gage1            Out1             1.273172 100.000000 182.508135 0.866176 0                        
237              Gage1            Out1             3.709134 100.000000 878.299375 1.313402 0                        

[SUBAREAS]
;;Subcatchment   N-Imperv   N-Perv     S-Imperv   S-Perv     PctZero    RouteTo    PctRouted 
;;-------------- ---------- ---------- ---------- ---------- ---------- ---------- ----------
1                0.014      0.15       0.05       0.05       25         IMPERVIOUS 100.0     
2                0.014      0.15       0.05       0.05       25         PERVIOUS   100.0     
3                0.014      0.15       0.05       0.05       25         PERVIOUS   100.0     
4                0.014      0.15       0.05       0.05       25         PERVIOUS   100.0     
5                0.014      0.15       0.05       0.05       25         PERVIOUS   100.0     
6                0.014      0.15       0.05       0.05       25         PERVIOUS   100.0     
7                0.014      0.15       0.05       0.05       25         PERVIOUS   100.0     
8                0.014      0.15       0.05       0.05       25         PERVIOUS   100.0     
9                0.014      0.15       0.05       0.05       25         PERVIOUS   100.0     
10               0.014      0.15       0.05       0.05       25         PERVIOUS   100.0     
11               0.014      0.15       0.05       0.05       25         PERVIOUS   100.0     